# Title
'Water quality in the Aquia aquifer'
# '-----------------------------------------------------------------------------'
# 'DEFINITION OF THE GEOCHEMICAL SYSTEM'
# 'PRIMARY AQUEOUS SPECIES'
'h2o'      0
'h+'       0
'ca+2'     0
'mg+2'     0
'na+'      0
'k+'       0
'hco3-'    0
'so4-2'    0
'cl-'      0
'*'
# 'AQUEOUS KINETICS'
'*'
# 'AQUEOUS COMPLEXES'
'oh-'  
'nahco3(aq)'
'cahco3+'
'mghco3+'
'co2(aq)'
'co3-2'
'caco3(aq)'
'mgso4(aq)'
'naso4-'
'kso4-'
'naco3-'
'*'
# 'MINERALS'         ! equilibrium mineral goes first
'calcite'           0    0     0    0
0.0   0.    0.00
'*'               
# 'GASES'   
'*'
# 'SURFACE COMPLEXES'
'*'
# 'species with Kd and decay    decay constant(1/s)'
'*'                    
# 'EXCHANGEABLE CATIONS'    
1     1
# '                 master     convention     ex. coef.'
'na+'               1            1            1.0000    
'k+'                0            1            0.1995
'ca+2'              0            1            0.3981
'mg+2'              0            1            0.5012         
'h+'                0            1            3.1E-6      !initial:1.3092E-6
'*'
# '----------------------------------------------------------------------------'
# 'INITIAL AND BOUDARY WATER TYPES'
1   1        !niwtype, nbwtype = number of initial and boundary waters
# Index  Speciation T(C)  P(bar)
1     25.0   1.0                         
# '        icon        guess         ctot         '
'h2o'      1        1.000d+0       1.000d+0   '   '    0.       
'h+'       3        1.585d-7       1.585d-7   '   '    0.       !pH=6.8
'ca+2'     1        2.000d-3       4.380d-3   '   '    0.      
'mg+2'     1        5.000d-3       9.920d-3   '   '    0.      
'na+'      1        8.000d-2       8.740d-2   '   '    0.      
'k+'       1        1.000d-3       1.900d-3   '   '    0.      
'hco3-'    1        1.000d-2       1.550d-2   '   '    0.      
'so4-2'    1        1.500d-4       2.700d-4   '   '    0.      
'cl-'      1        1.000d-1       1.018d-1   '   '    0.      
'*'        
# Index  Speciation T(C)  P(bar)
1     25.0   1.0                         
# '        icon        guess         ctot        '
'h2o'      1        1.000d+0       1.000d+0    '   '    0.      
'h+'       3        2.692d-7       2.692d-8    '   '    0.      !pH=7.57
'ca+2'     1        1.000d-3       1.400d-3    '   '    0.     
'mg+2'     1        0.600d-6       1.000d-6    '   '    0.     
'na+'      1        0.800d-4       1.000d-4    '   '    0.     
'k+'       1        3.000d-5       5.000d-5    '   '    0.     
'hco3-'    1        1.000d-3       2.800d-3    '   '    0.     
'so4-2'    1        0.500d-6       1.000d-6    '   '    0.     
'cl-'      1        0.900d-4       1.000d-4    '   '    0.     
'*'       
# '----------------------------------------------------------------------------'
#  'INITIAL MINERAL ZONES'
 1                                       !nmtype= number of mineral zones 
 1					!imtype
#  'mineral         vol.frac.'
 'calcite'            0.3     0
 '*'         
# '----------------------------------------------------------------------------'
# 'INITIAL gas ZONES'
'*'            
# '----------------------------------------------------------------------------'
# 'Permeability-Porosity Zones'
'*'     
# '----------------------------------------------------------------------------'
# 'INITIAL SURFACE ADSORPTION ZONES'
'*'                       
# '---------------------------------------if Sden=0 Kd store retardation factor'
# 'INITIAL LINEAR EQUILIBRIUM Kd ZONE
'*'
# '---------------------------------------if Sden=0 Kd store retardation factor'
# 'INITIAL ZONES OF CATION EXCHANGE'
1   			!nxtype= number of exchange zones
# 'zone            ex. capacity(meq/100 g solid)'
1                   3.2345
# '----------------------------------------------------------------------------'
# 'end'